FoamFile {
    class dictionary;
    format ascii;
    object momentumTransport;
}

simulationType laminar;