FoamFile {
    format ascii;
    class dictonary;
    location "constant";
    object "physicalProperties";
    version 2.0;
}

//Using gauge pressure
pOffset 0 [Pa];

thermoType {
    type heRhoThermo;
    mixture idealLiquidMulticomponentMixture;
    transport icoTabulated;
    thermo eIcoTabulated;
    equationOfState icoTabulated;
    specie specie;
    energy sensibleInternalEnergy;
}

species (
    C6H6
    C6H12
    C6H14
);

defaultSpecie C6H6;

C6H6 {
    specie {
        molWeight 78;
    }
    equationOfState {
        rho {
            values (
                (163.15 996.9268)
                (172.7 988.7632)
                (182.25 980.5236)
                (191.8 972.2048)
                (201.35 963.8035)
                (210.9 955.316)
                (220.45 946.7386)
                (230 938.067)
                (239.55 929.2969)
                (249.1 920.4235)
                (258.65 911.4415)
                (268.2 902.3454)
                (277.75 893.1291)
                (287.3 883.786)
                (296.85 874.3088)
                (306.4 864.6896)
                (315.95 854.9197)
                (325.5 844.9895)
                (335.05 834.8884)
                (344.6 824.6045)
            );
        }
    }
    thermodynamics {
        hf 0;
        sf 0;
        Cv {
            values (
                (163.15	1415.56)
                (172.7	1423.849)
                (182.25	1434.517)
                (191.8	1447.727)
                (201.35	1463.567)
                (210.9	1482.05)
                (220.45	1503.119)
                (230	1526.662)
                (239.55	1552.523)
                (249.1	1580.509)
                (258.65	1610.406)
                (268.2	1641.989)
                (277.75	1675.026)
                (287.3	1714.037)
                (296.85	1755.35)
                (306.4	1798.354)
                (315.95	1842.936)
                (325.5	1889.009)
                (335.05	1936.52)
                (344.6	1985.45)
            );
        }
    }
    transport {
        mu {
            values (
                (163.15	0.0118667)
                (172.7	0.00824782)
                (182.25	0.00595532)
                (191.8	0.00444176)
                (201.35	0.00340633)
                (210.9	0.00267582)
                (220.45	0.00214639)
                (230	0.00175353)
                (239.55	0.00145585)
                (249.1	0.00122607)
                (258.65	0.00104574)
                (268.2	0.000902095)
                (277.75	0.000786129)
                (287.3	0.000690479)
                (296.85	0.000609735)
                (306.4	0.000541105)
                (315.95	0.000482407)
                (325.5	0.000431912)
                (335.05	0.00038824)
                (344.6	0.000350277)
            );
        }
        kappa {
            values (
                (163.15	0.1896413)
                (172.7	0.1863079)
                (182.25	0.1829746)
                (191.8	0.1796412)
                (201.35	0.1763078)
                (210.9	0.1729745)
                (220.45	0.1696411)
                (230	0.1663078)
                (239.55	0.1629744)
                (249.1	0.159641)
                (258.65	0.1563077)
                (268.2	0.1529743)
                (277.75	0.149641)
                (287.3	0.1463211)
                (296.85	0.1430349)
                (306.4	0.1397839)
                (315.95	0.1365692)
                (325.5	0.1333925)
                (335.05	0.1302551)
                (344.6	0.1271586)
            );
        }
    }
}

C6H12 {
    specie {
        molWeight 84;
    }
    equationOfState {
        rho {
            values (
                (163.15	883.8096)
                (172.7	876.5374)
                (182.25	869.1952)
                (191.8	861.7802)
                (201.35	854.2891)
                (210.9	846.7187)
                (220.45	839.0653)
                (230	831.325)
                (239.55	823.4935)
                (249.1	815.5663)
                (258.65	807.5386)
                (268.2	799.4049)
                (277.75	791.1594)
                (287.3	782.7959)
                (296.85	774.3073)
                (306.4	765.6861)
                (315.95	756.9239)
                (325.5	748.0112)
                (335.05	738.9379)
                (344.6	729.6924)
            );
        }
    }
    thermodynamics {
        hf 0;
        sf 0;
        Cv {
            values (
                (163.15	1248.367)
                (172.7	1282.877)
                (182.25	1320.819)
                (191.8	1361.617)
                (201.35	1404.702)
                (210.9	1449.545)
                (220.45	1495.679)
                (230	1542.705)
                (239.55	1590.294)
                (249.1	1638.187)
                (258.65	1686.188)
                (268.2	1734.152)
                (277.75	1781.98)
                (287.3	1832.188)
                (296.85	1884.274)
                (306.4	1937.806)
                (315.95	1992.877)
                (325.5	2049.605)
                (335.05	2108.129)
                (344.6	2168.613)
            );
        }
    }
    transport {
        mu {
            values (
                (163.15	0.0743657)
                (172.7	0.0433013)
                (182.25	0.0266836)
                (191.8	0.0172554)
                (201.35	0.0116296)
                (210.9	0.00812318)
                (220.45	0.00585312)
                (230	0.0043338)
                (239.55	0.00328668)
                (249.1	0.00254598)
                (258.65	0.00200976)
                (268.2	0.00161341)
                (277.75	0.00131495)
                (287.3	0.00108762)
                (296.85	0.000913722)
                (306.4	0.000778525)
                (315.95	0.000671822)
                (325.5	0.000586454)
                (335.05	0.000517308)
                (344.6	0.000460671)
            );
        }
        kappa {
            values (
                (163.15	0.1625904)
                (172.7	0.1597652)
                (182.25	0.15694)
                (191.8	0.1541148)
                (201.35	0.1512896)
                (210.9	0.1484643)
                (220.45	0.1456391)
                (230	0.1428139)
                (239.55	0.1399887)
                (249.1	0.1371635)
                (258.65	0.1343383)
                (268.2	0.131513)
                (277.75	0.1286878)
                (287.3	0.1258704)
                (296.85	0.1230776)
                (306.4	0.120311)
                (315.95	0.1175719)
                (325.5	0.1148613)
                (335.05	0.1121808)
                (344.6	0.1095317)
            );
        }
    }
}

C6H14 {
    specie {
        molWeight 86;
    }
    equationOfState {
        rho {
            values (
                (163.15	764.6219)
                (172.7	757.5979)
                (182.25	750.4938)
                (191.8	743.3058)
                (201.35	736.0295)
                (210.9	728.6607)
                (220.45	721.1943)
                (230	713.625)
                (239.55	705.9471)
                (249.1	698.1543)
                (258.65	690.2394)
                (268.2	682.195)
                (277.75	674.0124)
                (287.3	665.6823)
                (296.85	657.1942)
                (306.4	648.5363)
                (315.95	639.6954)
                (325.5	630.6565)
                (335.05	621.4024)
                (344.6	611.9136)
            );
        }
    }
    thermodynamics {
        hf 0;
        sf 0;
        Cv {
            values (
                (163.15	1727.881)
                (172.7	1738.348)
                (182.25	1756.797)
                (191.8	1784.531)
                (201.35	1815.973)
                (210.9	1851.161)
                (220.45	1890.054)
                (230	1932.54)
                (239.55	1978.463)
                (249.1	2027.629)
                (258.65	2079.828)
                (268.2	2134.848)
                (277.75	2192.486)
                (287.3	2252.557)
                (296.85	2314.909)
                (306.4	2379.43)
                (315.95	2446.052)
                (325.5	2514.766)
                (335.05	2585.625)
                (344.6	2658.76)
            );
        }
    }
    transport {
        mu {
            values (
                (163.15	0.00358504)
                (172.7	0.0025407)
                (182.25	0.00187375)
                (191.8	0.00143901)
                (201.35	0.00114288)
                (210.9	0.000933268)
                (220.45	0.000779872)
                (230	0.0006643)
                (239.55	0.000574952)
                (249.1	0.000504267)
                (258.65	0.000447171)
                (268.2	0.000400171)
                (277.75	0.000360807)
                (287.3	0.000327315)
                (296.85	0.000298404)
                (306.4	0.000273119)
                (315.95	0.000250742)
                (325.5	0.000230727)
                (335.05	0.000212656)
                (344.6	0.000196208)
            );
        }
        kappa {
            values (
                (163.15	0.1673221)
                (172.7	0.1639081)
                (182.25	0.1604959)
                (191.8	0.1570981)
                (201.35	0.1537177)
                (210.9	0.1503552)
                (220.45	0.1470113)
                (230	0.1436866)
                (239.55	0.1403819)
                (249.1	0.1370979)
                (258.65	0.1338354)
                (268.2	0.1305954)
                (277.75	0.1273788)
                (287.3	0.1241866)
                (296.85	0.1210199)
                (306.4	0.1178799)
                (315.95	0.114768)
                (325.5	0.1116855)
                (335.05	0.108634)
                (344.6	0.1056152)
            );
        }
    }
}