FoamFile {
    format ascii;
    version 2.0;
    location "0";
    class volScalarField;
    object C6H14;
}

dimensions [0 0 0 0 0 0 0];

internalField uniform 0;

boundaryField {
    "(inlet|outlet)" {
        type zeroGradient;
    }
}
