FoamFile {
    format ascii;
    class dictonary;
    location "constant";
    object "physicalProperties";
    version 2.0;
}

//Using gauge pressure
pOffset 0 [Pa];

thermoType {
    type heRhoThermo;
    mixture realGasMulticomponentMixture;
    transport const;
    thermo hIcoTabulated;
    //equationOfState PengRobinsonGas;
    equationOfState RedlichKwongGas;
    specie specie;
    energy sensibleEnthalpy;
}

species (
    // H2
    NH3
    H2O
    // CH4
    // N2
);

defaultSpecie H2O;

mixingRule {
    binaryInteraction {
        k {
            symmetry yes;
            // "H2:N2"    0.103;
            // "N2:NH3"   0.2193;
            "NH3:H2O" -0.2589;
            // "H2:CH4"   0.0156;
            // "N2:CH4"   0.0311;
        }
    }
}

// H2
H2 {
    specie {
        molWeight 2.016;
        Tc 33.18;
        Pc 1292977.4;
        Vc 0.06503;
        omega -0.22014;
    }
    thermodynamics {
        hf 0;
        sf 0;
        Cp {
            values (
                (20 13699.72)
                (22.33515 13699.72)
                (24.94294 13699.72)
                (27.85521 13699.72)
                (31.10751 13699.72)
                (34.73953 13699.72)
                (38.79563 13699.72)
                (43.3253 13699.72)
                (48.38385 13699.72)
                (54.03301 13699.72)
                (60.34176 13699.73)
                (67.3871 13699.75)
                (75.25504 13699.84)
                (84.04162 13700.19)
                (93.85409 13701.25)
                (104.8122 13704.05)
                (117.0498 13710.49)
                (130.7163 13723.52)
                (145.9783 13747)
                (163.0224 13785.1)
                (182.0564 13841.22)
                (203.3128 13916.69)
                (227.0511 14009.77)
                (253.561 14115.2)
                (283.1661 14224.68)
                (316.2278 14328.24)
                (353.1497 14416.16)
                (394.3825 14481.29)
                (440.4295 14520.95)
                (491.8529 14538.28)
                (549.2803 14542.58)
                (613.4128 14548.25)
                (685.0332 14572.5)
                (765.0158 14632.03)
                (854.337 14739.55)
                (954.0871 14901.15)
                (1065.484 15115.25)
                (1189.887 15373.38)
                (1328.815 15662.37)
                (1483.963 15967.08)
                (1657.227 16272.96)
                (1850.72 16567.77)
                (2066.805 16842.52)
                (2308.12 17091.56)
                (2577.61 17312.19)
                (2878.565 17504.02)
                (3214.658 17668.25)
                (3589.993 17807.11)
                (4009.151 17923.32)
                (4477.249 18019.77)
                (5000 18099.29)
            );
        };
    }
    transport {
        mu          1e-05 [Pa*s];
        Pr          0.7;
    }

}

N2 {
    specie {
        molWeight 28.014;
        Tc 126.2069;
        Pc 3398309.7;
        Vc 0.0809887;
        omega 0.036816;
    }
    thermodynamics {
        hf 0;
        sf 0;
        Cp {
            values (
                (20 1038.964)
                (22.33515   1038.964)
                (24.94294   1038.964)
                (27.85521   1038.964)
                (31.10751   1038.964)
                (34.73953   1038.964)
                (38.79563   1038.964)
                (43.3253    1038.964)
                (48.38385   1038.964)
                (54.03301   1038.964)
                (60.34176   1038.964)
                (67.3871    1038.964)
                (75.25504   1038.964)
                (84.04162   1038.964)
                (93.85409   1038.964)
                (104.8122   1038.964)
                (117.0498   1038.964)
                (130.7163   1038.965)
                (145.9783   1038.966)
                (163.0224   1038.971)
                (182.0564   1038.982)
                (203.3128   1039.007)
                (227.0511   1039.064)
                (253.561    1039.191)
                (283.1661   1039.478)
                (316.2278   1040.104)
                (353.1497   1041.39)
                (394.3825   1043.824)
                (440.4295   1048.045)
                (491.8529   1054.74)
                (549.2803   1064.497)
                (613.4128   1077.639)
                (685.0332   1094.111)
                (765.0158   1113.458)
                (854.337    1134.905)
                (954.0871   1157.494)
                (1065.484   1180.251)
                (1189.887   1202.312)
                (1328.815   1223.008)
                (1483.963   1241.891)
                (1657.227   1258.723)
                (1850.72    1273.438)
                (2066.805   1286.096)
                (2308.12    1296.841)
                (2577.61    1305.865)
                (2878.565   1313.377)
                (3214.658   1319.583)
                (3589.993   1324.683)
                (4009.151   1328.853)
                (4477.249   1332.249)
                (5000   1335.007)
            );
        }
    }

    transport {
        mu          1e-05 [Pa*s];
        Pr          0.7;
    }
    
}

NH3 {
    specie {
        molWeight 17.031;
        Tc 405.431;
        Pc 11358033.2;
        Vc 0.07255;
        omega 0.25609;
    }

    thermodynamics {
        hf 0;
        sf 0;
        Cp {
            values (
                (20 1962.766)
                (22.33515   1962.766)
                (24.94294   1962.766)
                (27.85521   1962.766)
                (31.10751   1962.766)
                (34.73953   1962.766)
                (38.79563   1962.766)
                (43.3253    1962.766)
                (48.38385   1962.766)
                (54.03301   1962.766)
                (60.34176   1962.766)
                (67.3871    1962.766)
                (75.25504   1962.766)
                (84.04162   1962.766)
                (93.85409   1962.769)
                (104.8122   1962.784)
                (117.0498   1962.852)
                (130.7163   1963.098)
                (145.9783   1963.859)
                (163.0224   1965.865)
                (182.0564   1970.469)
                (203.3128   1979.773)
                (227.0511   1996.539)
                (253.561    2023.766)
                (283.1661   2063.995)
                (316.2278   2118.59)
                (353.1497   2187.326)
                (394.3825   2268.553)
                (440.4295   2359.963)
                (491.8529   2459.648)
                (549.2803   2566.934)
                (613.4128   2682.559)
                (685.0332   2808.076)
                (765.0158   2944.779)
                (854.337    3092.656)
                (954.0871   3249.846)
                (1065.484   3412.752)
                (1189.887   3576.684)
                (1328.815   3736.721)
                (1483.963   3888.481)
                (1657.227   4028.616)
                (1850.72    4155.007)
                (2066.805   4266.704)
                (2308.12    4363.717)
                (2577.61    4446.76)
                (2878.565   4516.987)
                (3214.658   4575.786)
                (3589.993   4624.613)
                (4009.151   4664.888)
                (4477.249   4697.928)
                (5000   4724.913)
            );
        }
    }

    transport {
        mu          1e-05 [Pa*s];
        Pr          0.7;
    }
}

H2O {
    specie {
        molWeight 18.015;
        Tc 647.1081;
        Pc 22071804.5;
        Vc 0.055989;
        omega 0.34417;
    }

    thermodynamics {
        hf 0;
        sf 0;
        Cp {
            values (
                (20 1851.928)
                (22.33515   1851.928)
                (24.94294   1851.928)
                (27.85521   1851.928)
                (31.10751   1851.928)
                (34.73953   1851.928)
                (38.79563   1851.928)
                (43.3253    1851.928)
                (48.38385   1851.928)
                (54.03301   1851.928)
                (60.34176   1851.928)
                (67.3871    1851.928)
                (75.25504   1851.928)
                (84.04162   1851.928)
                (93.85409   1851.928)
                (104.8122   1851.928)
                (117.0498   1851.928)
                (130.7163   1851.931)
                (145.9783   1851.942)
                (163.0224   1851.988)
                (182.0564   1852.143)
                (203.3128   1852.59)
                (227.0511   1853.694)
                (253.561    1856.083)
                (283.1661   1860.665)
                (316.2278   1868.543)
                (353.1497   1880.822)
                (394.3825   1898.364)
                (440.4295   1921.611)
                (491.8529   1950.603)
                (549.2803   1985.207)
                (613.4128   2025.466)
                (685.0332   2071.873)
                (765.0158   2125.362)
                (854.337    2186.982)
                (954.0871   2257.373)
                (1065.484   2336.278)
                (1189.887   2422.32)
                (1328.815   2513.12)
                (1483.963   2605.686)
                (1657.227   2696.92)
                (1850.72    2784.061)
                (2066.805   2864.977)
                (2308.12    2938.278)
                (2577.61    3003.283)
                (2878.565   3059.901)
                (3214.658   3108.474)
                (3589.993   3149.627)
                (4009.151   3184.133)
                (4477.249   3212.822)
                (5000   3236.508)
            );
        }
    }
    transport {
        mu          1e-05 [Pa*s];
        Pr          0.7;
    }
}

CH4 {
    specie {
        molWeight 16.043;
        Tc 190.5629;
        Pc 4606469.2;
        Vc 0.098961;
        omega 0.011433;
    }

    thermodynamics {
        hf 0;
        sf 0;
        Cp {
            values (
                (20 2075.578)
                (22.33515   2075.578)
                (24.94294   2075.578)
                (27.85521   2075.578)
                (31.10751   2075.578)
                (34.73953   2075.578)
                (38.79563   2075.578)
                (43.3253    2075.578)
                (48.38385   2075.578)
                (54.03301   2075.578)
                (60.34176   2075.578)
                (67.3871    2075.578)
                (75.25504   2075.578)
                (84.04162   2075.578)
                (93.85409   2075.579)
                (104.8122   2075.584)
                (117.0498   2075.61)
                (130.7163   2075.731)
                (145.9783   2076.178)
                (163.0224   2077.57)
                (182.0564   2081.278)
                (203.3128   2089.859)
                (227.0511   2107.345)
                (253.561    2139.112)
                (283.1661   2191.156)
                (316.2278   2268.882)
                (353.1497   2375.853)
                (394.3825   2513.065)
                (440.4295   2679.104)
                (491.8529   2871.105)
                (549.2803   3085.942)
                (613.4128   3321.018)
                (685.0332   3574.252)
                (765.0158   3843.39)
                (854.337    4125.128)
                (954.0871   4414.596)
                (1065.484   4705.484)
                (1189.887   4990.736)
                (1328.815   5263.513)
                (1483.963   5518.05)
                (1657.227   5750.207)
                (1850.72    5957.635)
                (2066.805   6139.641)
                (2308.12    6296.865)
                (2577.61    6430.889)
                (2878.565   6543.869)
                (3214.658   6638.231)
                (3589.993   6716.44)
                (4009.151   6780.855)
                (4477.249   6833.638)
                (5000   6876.709)
            );
        }
    }
    
    transport {
        mu          1e-05 [Pa*s];
        Pr          0.7;
    }
}