FoamFile {
    class dictionary;
    format ascii;
    object phaseProperties;
}

porousPhases (
    inert
);

heatTransfer {
    "inert:fluid" {
        type equilibrium;
        // type nonEquilibrium;
        // heatTransferCoeff 40[W/m^2/K];
        // specificSurfaceArea  1e3[m^2/m^3];
    }
}