FoamFile {
    class dictionary;
    format ascii;
    object phaseProperties;
}

porousPhases (
    inert
    catA
    H2
    MCH 
    TOL
    Al2O3
    ZrO2
    Pt
);

heatTransfer {
    "inert:fluid" {
        type equilibrium;
        // type nonEquilibrium;
        // heatTransferCoeff 40[W/m^2/K];
        // specificSurfaceArea  1e3[m^2/m^3];
    }

    "catA:H2" {
        type equilibrium;
    }
    "H2:MCH" {
        type equilibrium;
    }
}