FoamFile {
    class dictionary;
    format ascii;
    object phaseProperties;
}

porousPhases (
    inert
);

// heatTransfer {
//     ""
// }